14
XYZ from PySCF
H           0.84591        3.22207        0.00030
H          -0.84591        3.22207        0.00015
N          -0.00000        2.71464        0.00020
C           0.00000        1.34291       -0.00008
C           1.19589        0.63189       -0.00032
H           2.12931        1.16289        0.00000
C           1.18752       -0.74654       -0.00027
H           2.12302       -1.27302        0.00002
C           0.00000       -1.45301        0.00012
H          -0.00000       -2.52475        0.00033
C          -1.18752       -0.74654       -0.00003
H          -2.12302       -1.27302        0.00025
C          -1.19589        0.63189       -0.00045
H          -2.12931        1.16289       -0.00022
